html
xhtml
htm
txt
css
jscript
js
xml
java
script
javascript
html4
html5
php
asp
php3
php4
php5
php7
style
sheet
pfa
pfb
pt3
t42
sfd
ttf
bdf
otf
otb
cff
cef
gai
woff
pf3
ttc
gsf
cid
bin
hqx
dfont
mf
ik
fnt
pcf
pmf
pdb
eot
ttd
ttg
7z
bz2
gz
lzma
lz
tar
tar.7z
tar.Z
tar.bz2
tar.gz
tar.lz
tar.lzma
tar.lzo
tar.xz
tgz
zip
rar
rar5