ttf
ttd
ttg
php
otf
eot
woff
pfa
pfb
pt3
t42
sfd
bdf
otb
cff
cef
gai
svg
ufo
pf3
ttc
gsf
cid
bin
hqx
dfont
mf
ik
fnt
pcf
pmf
pdb
afm
fon